/*--------------------------------*- C++ -*----------------------------------*\
| =========                 |                                                 |
| \\      /  F ield         | OpenFOAM: The Open Source CFD Toolbox           |
|  \\    /   O peration     | Version:  4.x                                   |
|   \\  /    A nd           | Web:      www.OpenFOAM.org                      |
|    \\/     M anipulation  |                                                 |
\*---------------------------------------------------------------------------*/
FoamFile
{
    version     2.0;
    format      ascii;
    class       dictionary;
    object      blockMeshDict;
}
// * * * * * * * * * * * * * * * * * * * * * * * * * * * * * * * * * * * * * //

scale 1e-3;

vertices        
(
    (0 0 0) //0
    (10 0 0) //1
    (10 1 0) //2
    (0 1 0) //3
    (0 0 1) //4
    (10 0 1) //5 
    (10 1 1) //6
    (0 1 1) //7

);

blocks          
(
    hex (0 1 2 3 4 5 6 7) (500 50 1) simpleGrading (1 1 1)
);

edges           
(
);

boundary
(
    inlet
    {
        type patch;
        faces
        (
            (0 3 7 4)
        );
    }

    outlet
    {
        type patch;
        faces
        (
            (1 2 6 5)
        );
    }

    walls
    {
        type wall;
        faces
        (
            (2 3 7 6)
            (0 4 5 1)
        );
    }

    frontAndBack
    {
        type empty;
        faces
        (
            (0 1 2 3)
            (4 5 6 7)

        );
    }
);

mergePatchPairs
(
);

// ************************************************************************* //

