/*--------------------------------*- C++ -*----------------------------------*\
| =========                 |                                                 |
| \\      /  F ield         | OpenFOAM: The Open Source CFD Toolbox           |
|  \\    /   O peration     | Version:  1.6                                   |
|   \\  /    A nd           | Web:      www.OpenFOAM.org                      |
|    \\/     M anipulation  |                                                 |
\*---------------------------------------------------------------------------*/
FoamFile
{
    version     2.0;
    format      ascii;
    class       dictionary;
    location    "system";
    object      setFieldsDict;
}
// * * * * * * * * * * * * * * * * * * * * * * * * * * * * * * * * * * * * * //

defaultFieldValues
(
    volScalarFieldValue C 0
    volScalarFieldValue alpha.cyclohexane 0
);

regions
(
    boxToCell
    {
	box (-0.00001 0 0) (0.00098 1 1);
        fieldValues
        (
            volScalarFieldValue alpha.cyclohexane 1
        );
    }

    boxToCell
    {
	box (-0.00001 0 0) (0.00098 1 1);
        fieldValues
        (
            volScalarFieldValue C 1
        );
    }

    boxToCell
    {
	box (0.00098 0 0) (0.001 1 1);
        fieldValues
        (
            volScalarFieldValue alpha.cyclohexane 0.25
        );
    }

    boxToCell
    {
	box (0.00098 0 0) (0.001 1 1);
        fieldValues
        (
            volScalarFieldValue C 0.25
        );
    }
	/*boxToCell
    {
    box (0.003 0 0) (0.00302 1 1);
        fieldValues
        (
            volScalarFieldValue alpha.cyclohexane 0.75
        );
    }

    boxToCell
    {
	box (0.003 0 0) (0.00302 1 1);
        fieldValues
        (
            volScalarFieldValue C 0.75
        );
    }*/
);

// ************************************************************************* //
