/*--------------------------------*- C++ -*----------------------------------*\
| =========                 |                                                 |
| \\      /  F ield         | OpenFOAM: The Open Source CFD Toolbox           |
|  \\    /   O peration     | Version:  1.6                                   |
|   \\  /    A nd           | Web:      www.OpenFOAM.org                      |
|    \\/     M anipulation  |                                                 |
\*---------------------------------------------------------------------------*/
FoamFile
{
    version     2.0;
    format      ascii;
    class       dictionary;
    location    "system";
    object      fvSchemes;
}
// * * * * * * * * * * * * * * * * * * * * * * * * * * * * * * * * * * * * * //

ddtSchemes
{
    default         Euler;
}

gradSchemes
{
    default         Gauss linear;
    grad(U)         Gauss linear;
    grad(alpha1)    Gauss linear;
    //grad(interfaceLiquidConcentration) pointCellsLeastSquares;
}

divSchemes
{	
    default none;
    div(rhoPhi,U)  Gauss limitedLinearV 1;
    div(phi,alpha)  Gauss vanLeer01;
    div(phirb,alpha) Gauss interfaceCompression;
    div(((rho*nuEff)*dev2(T(grad(U))))) Gauss linear;
    div(alphaRhoPhi,C) Gauss upwind;//consistentInterpolation alphaf;
    div(alphaPhi,C) Gauss upwind;//consistentInterpolation alphaf;
}

laplacianSchemes
{
    default         Gauss linear corrected;
}

interpolationSchemes
{
    default         linear;
    //fvc::interpolate(C) consistentInterpolation alphaf;
}

snGradSchemes
{
    default         corrected;
}

fluxRequired
{
    default         no;
    p;
    pcorr;
    alpha.cyclohexane;
    CliqEthylene;
    CliqCyclohexane;
    CliqButene;
}


// ************************************************************************* //
